Circuit: * C:\Users\User\Documents\GitHub\project-project-group-7\Ltspice\design3.asc

WARNING: Less than two connections to node 5V.  This node is used by R3.
Direct Newton iteration for .op point succeeded.

Date: Thu Aug 25 14:01:33 2022
Total elapsed time: 0.059 seconds.

tnom = 27
temp = 27
method = trap
totiter = 45
traniter = 0
tranpoints = 0
accept = 0
rejected = 0
matrix size = 12
fillins = 3
solver = Normal
Matrix Compiler1:      76 opcodes
Matrix Compiler2:      88 opcodes
